Version 4.1
SHEET 1 1140 680
WIRE 704 -128 496 -128
WIRE 976 -128 768 -128
WIRE 320 48 160 48
WIRE 496 48 496 -128
WIRE 496 48 384 48
WIRE 608 48 496 48
WIRE 976 48 976 -128
WIRE 976 48 864 48
WIRE 1136 48 976 48
WIRE 160 144 160 48
WIRE 496 144 496 48
WIRE 976 144 976 48
WIRE 160 304 160 224
WIRE 496 304 496 208
WIRE 736 304 736 144
WIRE 976 304 976 208
FLAG 160 304 0
FLAG 496 304 0
FLAG 736 304 0
FLAG 976 304 0
SYMBOL voltage 160 128 R0
WINDOW 123 0 0 Left 0
WINDOW 39 0 0 Left 0
SYMATTR InstName V1
SYMATTR Value 9
SYMBOL schottky 320 64 R270
WINDOW 0 32 32 VTop 2
WINDOW 3 0 32 VBottom 2
SYMATTR InstName D1
SYMBOL cap 480 144 R0
SYMATTR InstName C2
SYMATTR Value 1µ
SYMBOL PowerProducts\\LT1117-3.3 736 48 R0
SYMATTR InstName U1
SYMBOL cap 960 144 R0
SYMATTR InstName C3
SYMATTR Value 4.7µ
SYMBOL schottky 768 -144 R90
WINDOW 0 0 32 VBottom 2
WINDOW 3 32 32 VTop 2
SYMATTR InstName D2
TEXT 128 328 Left 2 !.tran 0.1
